[Format]      =  4.0
[Frequency]   =  0
[Precision]   =  1e-008
[MinAngle]    =  30
[DoSmartMesh] =  1
[Depth]       =  15
[LengthUnits] =  millimeters
[ProblemType] =  planar
[Coordinates] =  cartesian
[ACSolver]    =  0
[PrevType]    =  0
[PrevSoln]    =  ""
[Comment]     =  "Add comments here."
[PointProps]   = 0
[BdryProps]   = 6
  <BeginBdry>
    <BdryName> = "Asymptotic"
    <BdryType> = 2
    <A_0> = 0
    <A_1> = 0
    <A_2> = 0
    <Phi> = 0
    <c0> = 6265942.6414132016
    <c0i> = 0
    <c1> = 0
    <c1i> = 0
    <Mu_ssd> = 0
    <Sigma_ssd> = 0
    <innerangle> = 0
    <outerangle> = 0
  <EndBdry>
  <BeginBdry>
    <BdryName> = "airgap_radius"
    <BdryType> = 5
    <A_0> = 0
    <A_1> = 0
    <A_2> = 0
    <Phi> = 0
    <c0> = 0
    <c0i> = 0
    <c1> = 0
    <c1i> = 0
    <Mu_ssd> = 0
    <Sigma_ssd> = 0
    <innerangle> = 0
    <outerangle> = 0
  <EndBdry>
  <BeginBdry>
    <BdryName> = "airgap_vertical_1"
    <BdryType> = 5
    <A_0> = 0
    <A_1> = 0
    <A_2> = 0
    <Phi> = 0
    <c0> = 0
    <c0i> = 0
    <c1> = 0
    <c1i> = 0
    <Mu_ssd> = 0
    <Sigma_ssd> = 0
    <innerangle> = 0
    <outerangle> = 0
  <EndBdry>
  <BeginBdry>
    <BdryName> = "airgap_vertical_2"
    <BdryType> = 5
    <A_0> = 0
    <A_1> = 0
    <A_2> = 0
    <Phi> = 0
    <c0> = 0
    <c0i> = 0
    <c1> = 0
    <c1i> = 0
    <Mu_ssd> = 0
    <Sigma_ssd> = 0
    <innerangle> = 0
    <outerangle> = 0
  <EndBdry>
  <BeginBdry>
    <BdryName> = "stator_boundary"
    <BdryType> = 5
    <A_0> = 0
    <A_1> = 0
    <A_2> = 0
    <Phi> = 0
    <c0> = 0
    <c0i> = 0
    <c1> = 0
    <c1i> = 0
    <Mu_ssd> = 0
    <Sigma_ssd> = 0
    <innerangle> = 0
    <outerangle> = 0
  <EndBdry>
  <BeginBdry>
    <BdryName> = "rotor_boundary"
    <BdryType> = 5
    <A_0> = 0
    <A_1> = 0
    <A_2> = 0
    <Phi> = 0
    <c0> = 0
    <c0i> = 0
    <c1> = 0
    <c1i> = 0
    <Mu_ssd> = 0
    <Sigma_ssd> = 0
    <innerangle> = 0
    <outerangle> = 0
  <EndBdry>
[BlockProps]  = 5
  <BeginBlock>
    <BlockName> = "Air"
    <Mu_x> = 1
    <Mu_y> = 1
    <H_c> = 0
    <H_cAngle> = 0
    <J_re> = 0
    <J_im> = 0
    <Sigma> = 0
    <d_lam> = 0
    <Phi_h> = 0
    <Phi_hx> = 0
    <Phi_hy> = 0
    <LamType> = 0
    <LamFill> = 1
    <NStrands> = 0
    <WireD> = 0
    <BHPoints> = 0
  <EndBlock>
  <BeginBlock>
    <BlockName> = "N42"
    <Mu_x> = 1.05
    <Mu_y> = 1.05
    <H_c> = 994529
    <H_cAngle> = 0
    <J_re> = 0
    <J_im> = 0
    <Sigma> = 0.66700000000000004
    <d_lam> = 0
    <Phi_h> = 0
    <Phi_hx> = 0
    <Phi_hy> = 0
    <LamType> = 0
    <LamFill> = 1
    <NStrands> = 0
    <WireD> = 0
    <BHPoints> = 0
  <EndBlock>
  <BeginBlock>
    <BlockName> = "wire"
    <Mu_x> = 1
    <Mu_y> = 1
    <H_c> = 0
    <H_cAngle> = 0
    <J_re> = 0
    <J_im> = 0
    <Sigma> = 0
    <d_lam> = 0
    <Phi_h> = 0
    <Phi_hx> = 0
    <Phi_hy> = 0
    <LamType> = 0
    <LamFill> = 1
    <NStrands> = 0
    <WireD> = 0
    <BHPoints> = 0
  <EndBlock>
  <BeginBlock>
    <BlockName> = "Hiperco-50"
    <Mu_x> = 3520
    <Mu_y> = 3520
    <H_c> = 0
    <H_cAngle> = 0
    <J_re> = 0
    <J_im> = 0
    <Sigma> = 2.5
    <d_lam> = 0.40000000000000002
    <Phi_h> = 20
    <Phi_hx> = 0
    <Phi_hy> = 0
    <LamType> = 0
    <LamFill> = 0.94999999999999996
    <NStrands> = 0
    <WireD> = 0
    <BHPoints> = 22
      0	0
      0.29072999999999999	81.170000000000002
      0.42870999999999998	106.8
      0.58955999999999997	136.84
      0.79627000000000003	179.91
      1.0201	233.41
      1.1980999999999999	283.70999999999998
      1.3989	344.75
      1.5596000000000001	402.92000000000002
      1.7835000000000001	536.63999999999999
      1.8985000000000001	670.10000000000002
      1.9906999999999999	893.79999999999995
      2.0543999999999998	1290.4000000000001
      2.1183999999999998	2209.8000000000002
      2.1476999999999999	3233.6999999999998
      2.177	4549
      2.2065000000000001	7297.8000000000002
      2.2416999999999998	11554
      2.2711999999999999	18294
      2.2890000000000001	25071
      2.3126000000000002	36690
      2.3410000000000002	62037
  <EndBlock>
  <BeginBlock>
    <BlockName> = "Hiperco-50"
    <Mu_x> = 3520
    <Mu_y> = 3520
    <H_c> = 0
    <H_cAngle> = 0
    <J_re> = 0
    <J_im> = 0
    <Sigma> = 2.5
    <d_lam> = 0
    <Phi_h> = 20
    <Phi_hx> = 0
    <Phi_hy> = 0
    <LamType> = 0
    <LamFill> = 1
    <NStrands> = 0
    <WireD> = 0
    <BHPoints> = 22
      0	0
      0.29072999999999999	81.170000000000002
      0.42870999999999998	106.8
      0.58955999999999997	136.84
      0.79627000000000003	179.91
      1.0201	233.41
      1.1980999999999999	283.70999999999998
      1.3989	344.75
      1.5596000000000001	402.92000000000002
      1.7835000000000001	536.63999999999999
      1.8985000000000001	670.10000000000002
      1.9906999999999999	893.79999999999995
      2.0543999999999998	1290.4000000000001
      2.1183999999999998	2209.8000000000002
      2.1476999999999999	3233.6999999999998
      2.177	4549
      2.2065000000000001	7297.8000000000002
      2.2416999999999998	11554
      2.2711999999999999	18294
      2.2890000000000001	25071
      2.3126000000000002	36690
      2.3410000000000002	62037
  <EndBlock>
[CircuitProps]  = 6
  <BeginCircuit>
    <CircuitName> = "A"
    <TotalAmps_re> = 172.63839922403162
    <TotalAmps_im> = 0
    <CircuitType> = 1
  <EndCircuit>
  <BeginCircuit>
    <CircuitName> = "a"
    <TotalAmps_re> = -172.63839922403162
    <TotalAmps_im> = -0
    <CircuitType> = 1
  <EndCircuit>
  <BeginCircuit>
    <CircuitName> = "B"
    <TotalAmps_re> = -417.90174941677094
    <TotalAmps_im> = -0
    <CircuitType> = 1
  <EndCircuit>
  <BeginCircuit>
    <CircuitName> = "b"
    <TotalAmps_re> = 417.90174941677094
    <TotalAmps_im> = 0
    <CircuitType> = 1
  <EndCircuit>
  <BeginCircuit>
    <CircuitName> = "C"
    <TotalAmps_re> = 245.26335019273938
    <TotalAmps_im> = 0
    <CircuitType> = 1
  <EndCircuit>
  <BeginCircuit>
    <CircuitName> = "c"
    <TotalAmps_re> = -245.26335019273938
    <TotalAmps_im> = -0
    <CircuitType> = 1
  <EndCircuit>
[NumPoints] = 50
0	48.799999999999997	0	1
1.5996379241244258	48.773775315344444	0	1
1.5996379241244258	48.973775315344447	0	1
0.99998111144070634	49.573432128028166	0	1
0.99998111144070634	60.491735284886332	0	1
2.4360893766196159	60.45093438937996	0	1
1.9730267553093619	48.960153957570142	0	1
3.9267685533762222	48.641756636949438	0	1
2.3302075517466529	48.744334365808939	0	1
2.3463008654899986	48.943685827435786	0	1
2.9922655020292304	49.493145811726478	0	1
3.8708238932706021	60.37604427574967	0	1
5.5191091342259702	48.48689961592207	0	1
5.5352024479693158	48.68625107754891	0	1
4.9857424636786192	49.33221571408815	0	1
5.8643008549199909	60.215114178111342	0	1
7.2924691554470442	60.058886882932264	0	1
5.906284430307231	48.642628571598067	0	1
7.8280705058586975	48.168052816730139	0	1
6.2449407374704293	48.398767703170726	0	1
6.2770229936419817	48.596177755698314	0	1
6.9651061254917384	49.091877452752712	0	1
8.7165251196766818	59.868791451289916	0	1
9.4027868037355908	47.885567766535836	0	1
9.4348690599071432	48.082977819063423	0	1
8.9391693628527413	48.771060950913174	0	1
10.690588357037685	59.547974949450378	0	1
12.101554473450685	59.277334448557191	0	1
9.8012375843466994	48.00963707362645	0	1
11.678604417232815	47.381960690391324	0	1
10.119173086130733	47.739316459841852	0	1
10.167036218988246	47.933504823327063	0	1
10.892775362999252	48.372229430394142	0	1
13.505696335875703	58.973266540722612	0	1
0	63.5	0	3
15.196544682259916	61.654805406554303	0	3
5.8573352231160465	45.323080478758762	0	2
0.35153499469998534	45.698647935661086	0	2
6.2162091536351918	48.099986941352306	0	2
0.43167400946148982	48.498078905762398	0	2
0.41013574364699262	45.698159576418213	0	2
11.277722314408825	44.286600449787123	0	2
11.911899681005536	47.014430188928806	0	2
11.220922723797829	44.301025871040039	0	2
0.32691985283915487	42.498742609750458	0	4
10.488034975106672	41.185569346082112	0	4
0	48.649999999999999	0	0
12.005715330327993	47.145363498515174	0	0
11.642707067589683	47.23631941777743	0	0
0.37422707860293847	48.648560657984937	0	0
[NumSegments] = 37
1	2	1	0	0	1
2	3	1	0	0	1
3	4	1	0	0	1
2	6	1	0	0	1
5	6	1	0	0	1
8	9	1	0	0	1
9	10	1	0	0	1
10	11	1	0	0	1
9	6	1	0	0	1
12	13	1	0	0	1
13	14	1	0	0	1
14	15	1	0	0	1
13	17	1	0	0	1
16	17	1	0	0	1
19	20	1	0	0	1
20	21	1	0	0	1
21	22	1	0	0	1
20	17	1	0	0	1
23	24	1	0	0	1
24	25	1	0	0	1
25	26	1	0	0	1
24	28	1	0	0	1
27	28	1	0	0	1
30	31	1	0	0	1
31	32	1	0	0	1
32	33	1	0	0	1
31	28	1	0	0	1
39	40	1	0	0	2
42	43	1	0	0	2
34	0	1	5	0	1
35	29	1	5	0	1
48	29	1	3	0	7
0	46	1	3	0	7
44	37	1	6	0	2
45	41	1	6	0	2
49	37	1	4	0	2
47	41	1	4	0	2
[NumArcSegments] = 22
1	0	1.8787140469453263	0.68036266532742906	0	0	1	0.68036266532742906
5	4	1.3607253306548581	0.68036266532742906	0	0	1	0.68036266532742906
7	8	1.8787140469453263	0.68036266532742906	0	0	1	0.68036266532742906
11	5	1.3607253306548581	0.68036266532742906	0	0	1	0.68036266532742906
12	7	1.8787140469453263	0.68036266532742906	0	0	1	0.68036266532742906
16	15	1.3607253306548581	0.68036266532742906	0	0	1	0.68036266532742906
18	19	1.8787140469453263	0.68036266532742906	0	0	1	0.68036266532742906
22	16	1.3607253306548581	0.68036266532742906	0	0	1	0.68036266532742906
23	18	1.8787140469453263	0.68036266532742906	0	0	1	0.68036266532742906
27	26	1.3607253306548581	0.68036266532742906	0	0	1	0.68036266532742906
29	30	1.8787140469453263	0.68036266532742906	0	0	1	0.68036266532742906
33	27	1.3607253306548581	0.68036266532742906	0	0	1	0.68036266532742906
35	34	13.846153846153845	10	1	0	1	0.31
40	37	0.073472496740632665	0.68661828731753671	0	0	2	0.68661828731753671
36	40	6.8619181737662025	0.68661828731753671	0	0	2	0.68661828731753671
38	39	6.8661828731753669	0.68661828731753671	0	0	2	0.68661828731753671
41	43	0.073472496740632665	0.68661828731753671	0	0	2	0.68661828731753671
43	36	6.8619181737662025	0.68661828731753671	0	0	2	0.68661828731753671
42	38	6.8661828731753669	0.68661828731753671	0	0	2	0.68661828731753671
45	44	13.846153846153843	10	1	0	2	0.42999999999999999
49	46	0.44073676548524859	10	2	0	10	0.049000000000000002
47	48	0.44073676548525165	10	2	0	10	0.049000000000000002
[NumHoles] = 0
[NumBlockLabels] = 10
6.0367721883756191	46.711533710055541	2	607811111010162	0	82.636186311437839	2	1	0
1.6022695887025977	54.869063939966153	3	607811111010162	1	0	11	1	0
6.0121992260882209	54.562211336682452	3	607811111010162	4	0	11	1	0
10.383137444421955	53.901501855636809	3	607811111010162	5	0	11	1	0
2.8180513818072148	54.820069608606573	3	607811111010162	1	0	11	1	0
7.2200962077306867	54.41554608964325	3	607811111010162	4	0	11	1	0
11.5753159391681	53.658116873325113	3	607811111010162	5	0	11	1	0
1.498239421252046	61.972792764540237	5	607811111010162	0	0	1	1	0
5.6522644056765348	43.736276785848169	5	607811111010162	0	0	2	1	0
1.7241008678527379	48.902568196086349	1	607811111010162	0	0	0	1	0
